Mol_001_001_001_001_001
 OpenBabel06172111553D

 12 11  0  0  0  0  0  0  0  0999 V2000
    1.0058    0.0349   -0.0980 O   0  0  0  0  0  0  0  0  0  0  0  0
    2.2183    0.0919   -0.0395 C   0  0  0  0  0  0  0  0  0  0  0  0
    2.9610    1.0524    0.7813 C   0  0  0  0  0  0  0  0  0  0  0  0
    4.3137    1.0735    0.8024 C   0  0  0  0  0  0  0  0  0  0  0  0
    5.1070    1.9968    1.5932 C   0  0  0  0  0  0  0  0  0  0  0  0
    6.4517    2.0136    1.5984 C   0  0  0  0  0  0  0  0  0  0  0  0
    2.8536   -0.6146   -0.6302 H   0  0  0  0  0  0  0  0  0  0  0  0
    2.3682    1.7541    1.3749 H   0  0  0  0  0  0  0  0  0  0  0  0
    4.8571    0.3473    0.1856 H   0  0  0  0  0  0  0  0  0  0  0  0
    4.5522    2.7124    2.2068 H   0  0  0  0  0  0  0  0  0  0  0  0
    7.0315    1.3127    0.9923 H   0  0  0  0  0  0  0  0  0  0  0  0
    7.0110    2.7269    2.2033 H   0  0  0  0  0  0  0  0  0  0  0  0
  1  2  2  0  0  0  0
  2  3  1  0  0  0  0
  2  7  1  0  0  0  0
  3  4  2  3  0  0  0
  3  8  1  0  0  0  0
  4  5  1  0  0  0  0
  4  9  1  0  0  0  0
  5  6  2  0  0  0  0
  5 10  1  0  0  0  0
  6 11  1  0  0  0  0
  6 12  1  0  0  0  0
M  END
$$$$
